*SPEF "ieee 1481-1999"
*DESIGN "tiny_user_project"
*DATE "11:11:11 Fri 11 11, 1111"
*VENDOR "OpenRCX"
*PROGRAM "Parallel Extraction"
*VERSION "1.0"
*DESIGN_FLOW "NAME_SCOPE LOCAL" "PIN_CAP NONE"
*DIVIDER /
*DELIMITER :
*BUS_DELIMITER []
*T_UNIT 1 NS
*C_UNIT 1 PF
*R_UNIT 1 OHM
*L_UNIT 1 HENRY

*NAME_MAP
*1 io_in[0]
*2 io_in[10]
*3 io_in[11]
*4 io_in[12]
*5 io_in[13]
*6 io_in[14]
*7 io_in[15]
*8 io_in[16]
*9 io_in[17]
*10 io_in[18]
*11 io_in[19]
*12 io_in[1]
*13 io_in[20]
*14 io_in[21]
*15 io_in[22]
*16 io_in[23]
*17 io_in[24]
*18 io_in[25]
*19 io_in[26]
*20 io_in[27]
*21 io_in[28]
*22 io_in[29]
*23 io_in[2]
*24 io_in[30]
*25 io_in[31]
*26 io_in[32]
*27 io_in[33]
*28 io_in[34]
*29 io_in[35]
*30 io_in[36]
*31 io_in[37]
*32 io_in[3]
*33 io_in[4]
*34 io_in[5]
*35 io_in[6]
*36 io_in[7]
*37 io_in[8]
*38 io_in[9]
*39 net13
*40 net23
*41 net24
*42 net25
*43 net26
*44 net27
*45 net28
*46 net29
*47 net30
*48 net31
*49 net32
*50 net14
*51 net33
*52 net34
*53 net35
*54 net36
*55 net37
*56 net38
*57 net39
*58 net40
*59 net41
*60 net42
*61 net15
*62 net43
*63 net44
*64 net45
*65 net46
*66 net47
*67 net48
*68 net49
*69 net50
*70 net16
*71 net17
*72 net18
*73 net19
*74 net20
*75 net21
*76 net22
*77 net51
*78 net61
*79 net62
*80 net63
*81 net64
*82 net65
*83 net66
*84 io_out[16]
*85 io_out[17]
*86 io_out[18]
*87 io_out[19]
*88 net52
*89 net67
*90 net68
*91 net69
*92 net70
*93 net71
*94 net72
*95 net73
*96 net74
*97 net75
*98 net76
*99 net53
*100 net77
*101 net78
*102 net79
*103 net80
*104 net81
*105 net82
*106 net83
*107 net84
*108 net54
*109 net55
*110 net56
*111 net57
*112 net58
*113 net59
*114 net60
*115 la_data_in[0]
*116 la_data_in[10]
*117 la_data_in[11]
*118 la_data_in[12]
*119 la_data_in[13]
*120 la_data_in[14]
*121 la_data_in[15]
*122 la_data_in[16]
*123 la_data_in[17]
*124 la_data_in[18]
*125 la_data_in[19]
*126 la_data_in[1]
*127 la_data_in[20]
*128 la_data_in[21]
*129 la_data_in[22]
*130 la_data_in[23]
*131 la_data_in[24]
*132 la_data_in[25]
*133 la_data_in[26]
*134 la_data_in[27]
*135 la_data_in[28]
*136 la_data_in[29]
*137 la_data_in[2]
*138 la_data_in[30]
*139 la_data_in[31]
*140 la_data_in[32]
*141 la_data_in[33]
*142 la_data_in[34]
*143 la_data_in[35]
*144 la_data_in[36]
*145 la_data_in[37]
*146 la_data_in[38]
*147 la_data_in[39]
*148 la_data_in[3]
*149 la_data_in[40]
*150 la_data_in[41]
*151 la_data_in[42]
*152 la_data_in[43]
*153 la_data_in[44]
*154 la_data_in[45]
*155 la_data_in[46]
*156 la_data_in[47]
*157 la_data_in[48]
*158 la_data_in[49]
*159 la_data_in[4]
*160 la_data_in[50]
*161 la_data_in[51]
*162 la_data_in[52]
*163 la_data_in[53]
*164 la_data_in[54]
*165 la_data_in[55]
*166 la_data_in[56]
*167 la_data_in[57]
*168 la_data_in[58]
*169 la_data_in[59]
*170 la_data_in[5]
*171 la_data_in[60]
*172 la_data_in[61]
*173 la_data_in[62]
*174 la_data_in[63]
*175 la_data_in[6]
*176 la_data_in[7]
*177 la_data_in[8]
*178 la_data_in[9]
*179 net85
*180 net95
*181 net96
*182 net97
*183 net98
*184 net99
*185 net100
*186 net101
*187 net102
*188 net103
*189 net104
*190 net86
*191 net105
*192 net106
*193 net107
*194 net108
*195 net109
*196 net110
*197 net111
*198 net112
*199 net113
*200 net114
*201 net87
*202 net115
*203 net116
*204 net117
*205 net118
*206 net119
*207 net120
*208 net121
*209 net122
*210 net123
*211 net124
*212 net88
*213 net125
*214 net126
*215 net127
*216 net128
*217 net129
*218 net130
*219 net131
*220 net132
*221 net133
*222 net134
*223 net89
*224 net135
*225 net136
*226 net137
*227 net138
*228 net139
*229 net140
*230 net141
*231 net142
*232 net143
*233 net144
*234 net90
*235 net145
*236 net146
*237 net147
*238 net148
*239 net91
*240 net92
*241 net93
*242 net94
*243 la_oenb[0]
*244 la_oenb[10]
*245 la_oenb[11]
*246 la_oenb[12]
*247 la_oenb[13]
*248 la_oenb[14]
*249 la_oenb[15]
*250 la_oenb[16]
*251 la_oenb[17]
*252 la_oenb[18]
*253 la_oenb[19]
*254 la_oenb[1]
*255 la_oenb[20]
*256 la_oenb[21]
*257 la_oenb[22]
*258 la_oenb[23]
*259 la_oenb[24]
*260 la_oenb[25]
*261 la_oenb[26]
*262 la_oenb[27]
*263 la_oenb[28]
*264 la_oenb[29]
*265 la_oenb[2]
*266 la_oenb[30]
*267 la_oenb[31]
*268 la_oenb[32]
*269 la_oenb[33]
*270 la_oenb[34]
*271 la_oenb[35]
*272 la_oenb[36]
*273 la_oenb[37]
*274 la_oenb[38]
*275 la_oenb[39]
*276 la_oenb[3]
*277 la_oenb[40]
*278 la_oenb[41]
*279 la_oenb[42]
*280 la_oenb[43]
*281 la_oenb[44]
*282 la_oenb[45]
*283 la_oenb[46]
*284 la_oenb[47]
*285 la_oenb[48]
*286 la_oenb[49]
*287 la_oenb[4]
*288 la_oenb[50]
*289 la_oenb[51]
*290 la_oenb[52]
*291 la_oenb[53]
*292 la_oenb[54]
*293 la_oenb[55]
*294 la_oenb[56]
*295 la_oenb[57]
*296 la_oenb[58]
*297 la_oenb[59]
*298 la_oenb[5]
*299 la_oenb[60]
*300 la_oenb[61]
*301 la_oenb[62]
*302 la_oenb[63]
*303 la_oenb[6]
*304 la_oenb[7]
*305 la_oenb[8]
*306 la_oenb[9]
*307 user_clock2
*308 net149
*309 net150
*310 net151
*313 wb_clk_i
*314 wb_rst_i
*315 net152
*316 wbs_adr_i[0]
*317 wbs_adr_i[10]
*318 wbs_adr_i[11]
*319 wbs_adr_i[12]
*320 wbs_adr_i[13]
*321 wbs_adr_i[14]
*322 wbs_adr_i[15]
*323 wbs_adr_i[16]
*324 wbs_adr_i[17]
*325 wbs_adr_i[18]
*326 wbs_adr_i[19]
*327 wbs_adr_i[1]
*328 wbs_adr_i[20]
*329 wbs_adr_i[21]
*330 wbs_adr_i[22]
*331 wbs_adr_i[23]
*332 wbs_adr_i[24]
*333 wbs_adr_i[25]
*334 wbs_adr_i[26]
*335 wbs_adr_i[27]
*336 wbs_adr_i[28]
*337 wbs_adr_i[29]
*338 wbs_adr_i[2]
*339 wbs_adr_i[30]
*340 wbs_adr_i[31]
*341 wbs_adr_i[3]
*342 wbs_adr_i[4]
*343 wbs_adr_i[5]
*344 wbs_adr_i[6]
*345 wbs_adr_i[7]
*346 wbs_adr_i[8]
*347 wbs_adr_i[9]
*348 wbs_cyc_i
*349 wbs_dat_i[0]
*350 wbs_dat_i[10]
*351 wbs_dat_i[11]
*352 wbs_dat_i[12]
*353 wbs_dat_i[13]
*354 wbs_dat_i[14]
*355 wbs_dat_i[15]
*356 wbs_dat_i[16]
*357 wbs_dat_i[17]
*358 wbs_dat_i[18]
*359 wbs_dat_i[19]
*360 wbs_dat_i[1]
*361 wbs_dat_i[20]
*362 wbs_dat_i[21]
*363 wbs_dat_i[22]
*364 wbs_dat_i[23]
*365 wbs_dat_i[24]
*366 wbs_dat_i[25]
*367 wbs_dat_i[26]
*368 wbs_dat_i[27]
*369 wbs_dat_i[28]
*370 wbs_dat_i[29]
*371 wbs_dat_i[2]
*372 wbs_dat_i[30]
*373 wbs_dat_i[31]
*374 wbs_dat_i[3]
*375 wbs_dat_i[4]
*376 wbs_dat_i[5]
*377 wbs_dat_i[6]
*378 wbs_dat_i[7]
*379 wbs_dat_i[8]
*380 wbs_dat_i[9]
*381 net153
*382 net163
*383 net164
*384 net165
*385 net166
*386 net167
*387 net168
*388 net169
*389 net170
*390 net171
*391 net172
*392 net154
*393 net173
*394 net174
*395 net175
*396 net176
*397 net177
*398 net178
*399 net179
*400 net180
*401 net181
*402 net182
*403 net155
*404 net183
*405 net184
*406 net156
*407 net157
*408 net158
*409 net159
*410 net160
*411 net161
*412 net162
*413 wbs_sel_i[0]
*414 wbs_sel_i[1]
*415 wbs_sel_i[2]
*416 wbs_sel_i[3]
*417 wbs_stb_i
*418 wbs_we_i
*419 _000_
*420 _001_
*421 _002_
*422 _003_
*423 _004_
*424 _005_
*425 _006_
*426 _007_
*427 _008_
*428 _009_
*429 _010_
*430 _011_
*431 _012_
*432 _013_
*433 _014_
*434 _015_
*435 _016_
*436 _017_
*437 _018_
*438 net1
*439 net10
*440 net11
*441 net12
*442 net2
*443 net3
*444 net4
*445 net5
*446 net6
*447 net7
*448 net8
*449 net9
*450 ANTENNA__019__A1
*451 ANTENNA__019__A2
*452 ANTENNA__020__A1
*453 ANTENNA__020__A2
*454 ANTENNA__021__A1
*455 ANTENNA__021__A2
*456 ANTENNA__022__A1
*457 ANTENNA__022__A2
*458 ANTENNA__024__A1
*459 ANTENNA__024__A2
*460 ANTENNA__024__B1
*461 ANTENNA__024__B2
*462 ANTENNA__025__A1
*463 ANTENNA__025__A2
*464 ANTENNA__025__B1
*465 ANTENNA__025__B2
*466 ANTENNA__026__A1
*467 ANTENNA__026__A2
*468 ANTENNA__026__A3
*469 ANTENNA__026__A4
*470 ANTENNA__028__A1
*471 ANTENNA__028__A2
*472 ANTENNA__028__B1
*473 ANTENNA__028__B2
*474 ANTENNA__029__A1
*475 ANTENNA__029__A2
*476 ANTENNA__029__B1
*477 ANTENNA__029__B2
*478 ANTENNA__030__A1
*479 ANTENNA__030__A2
*480 ANTENNA__030__A3
*481 ANTENNA__030__A4
*482 ANTENNA__039__B1
*483 ANTENNA_input1_I
*484 ANTENNA_input2_I
*485 ANTENNA_input3_I
*486 ANTENNA_input4_I
*487 ANTENNA_input5_I
*488 ANTENNA_input6_I
*489 ANTENNA_input7_I
*490 ANTENNA_input8_I
*491 ANTENNA_output10_I
*492 ANTENNA_output11_I
*493 ANTENNA_output12_I
*494 ANTENNA_output9_I
*495 FILLER_0_101
*496 FILLER_0_1011
*497 FILLER_0_1017
*498 FILLER_0_1025
*499 FILLER_0_1029
*500 FILLER_0_1044
*501 FILLER_0_107
*502 FILLER_0_11
*503 FILLER_0_115
*504 FILLER_0_119
*505 FILLER_0_135
*506 FILLER_0_139
*507 FILLER_0_142
*508 FILLER_0_174
*509 FILLER_0_177
*510 FILLER_0_2
*511 FILLER_0_209
*512 FILLER_0_212
*513 FILLER_0_228
*514 FILLER_0_233
*515 FILLER_0_237
*516 FILLER_0_239
*517 FILLER_0_244
*518 FILLER_0_247
*519 FILLER_0_251
*520 FILLER_0_257
*521 FILLER_0_263
*522 FILLER_0_27
*523 FILLER_0_279
*524 FILLER_0_282
*525 FILLER_0_287
*526 FILLER_0_299
*527 FILLER_0_317
*528 FILLER_0_323
*529 FILLER_0_329
*530 FILLER_0_345
*531 FILLER_0_349
*532 FILLER_0_352
*533 FILLER_0_368
*534 FILLER_0_37
*535 FILLER_0_372
*536 FILLER_0_377
*537 FILLER_0_387
*538 FILLER_0_395
*539 FILLER_0_411
*540 FILLER_0_419
*541 FILLER_0_422
*542 FILLER_0_426
*543 FILLER_0_431
*544 FILLER_0_447
*545 FILLER_0_449
*546 FILLER_0_454
*547 FILLER_0_457
*548 FILLER_0_462
*549 FILLER_0_466
*550 FILLER_0_468
*551 FILLER_0_473
*552 FILLER_0_485
*553 FILLER_0_489
*554 FILLER_0_492
*555 FILLER_0_508
*556 FILLER_0_516
*557 FILLER_0_521
*558 FILLER_0_527
*559 FILLER_0_53
*560 FILLER_0_543
*561 FILLER_0_551
*562 FILLER_0_559
*563 FILLER_0_562
*564 FILLER_0_59
*565 FILLER_0_594
*566 FILLER_0_597
*567 FILLER_0_6
*568 FILLER_0_602
*569 FILLER_0_608
*570 FILLER_0_612
*571 FILLER_0_617
*572 FILLER_0_625
*573 FILLER_0_629
*574 FILLER_0_632
*575 FILLER_0_65
*576 FILLER_0_664
*577 FILLER_0_667
*578 FILLER_0_672
*579 FILLER_0_676
*580 FILLER_0_678
*581 FILLER_0_683
*582 FILLER_0_69
*583 FILLER_0_695
*584 FILLER_0_699
*585 FILLER_0_702
*586 FILLER_0_718
*587 FILLER_0_72
*588 FILLER_0_726
*589 FILLER_0_731
*590 FILLER_0_737
*591 FILLER_0_749
*592 FILLER_0_761
*593 FILLER_0_769
*594 FILLER_0_77
*595 FILLER_0_772
*596 FILLER_0_777
*597 FILLER_0_793
*598 FILLER_0_801
*599 FILLER_0_807
*600 FILLER_0_827
*601 FILLER_0_835
*602 FILLER_0_839
*603 FILLER_0_842
*604 FILLER_0_874
*605 FILLER_0_877
*606 FILLER_0_885
*607 FILLER_0_893
*608 FILLER_0_909
*609 FILLER_0_912
*610 FILLER_0_93
*611 FILLER_0_944
*612 FILLER_0_947
*613 FILLER_0_952
*614 FILLER_0_960
*615 FILLER_0_964
*616 FILLER_0_966
*617 FILLER_0_971
*618 FILLER_0_979
*619 FILLER_0_982
*620 FILLER_0_987
*621 FILLER_0_995
*622 FILLER_100_101
*623 FILLER_100_1024
*624 FILLER_100_1028
*625 FILLER_100_1031
*626 FILLER_100_1039
*627 FILLER_100_1043
*628 FILLER_100_105
*629 FILLER_100_108
*630 FILLER_100_172
*631 FILLER_100_176
*632 FILLER_100_179
*633 FILLER_100_2
*634 FILLER_100_243
*635 FILLER_100_247
*636 FILLER_100_250
*637 FILLER_100_314
*638 FILLER_100_318
*639 FILLER_100_321
*640 FILLER_100_34
*641 FILLER_100_37
*642 FILLER_100_385
*643 FILLER_100_389
*644 FILLER_100_392
*645 FILLER_100_456
*646 FILLER_100_460
*647 FILLER_100_463
*648 FILLER_100_527
*649 FILLER_100_531
*650 FILLER_100_534
*651 FILLER_100_598
*652 FILLER_100_602
*653 FILLER_100_605
*654 FILLER_100_669
*655 FILLER_100_673
*656 FILLER_100_676
*657 FILLER_100_740
*658 FILLER_100_744
*659 FILLER_100_747
*660 FILLER_100_811
*661 FILLER_100_815
*662 FILLER_100_818
*663 FILLER_100_882
*664 FILLER_100_886
*665 FILLER_100_889
*666 FILLER_100_953
*667 FILLER_100_957
*668 FILLER_100_960
*669 FILLER_101_1028
*670 FILLER_101_1036
*671 FILLER_101_1044
*672 FILLER_101_137
*673 FILLER_101_141
*674 FILLER_101_144
*675 FILLER_101_2
*676 FILLER_101_208
*677 FILLER_101_212
*678 FILLER_101_215
*679 FILLER_101_279
*680 FILLER_101_283
*681 FILLER_101_286
*682 FILLER_101_350
*683 FILLER_101_354
*684 FILLER_101_357
*685 FILLER_101_421
*686 FILLER_101_425
*687 FILLER_101_428
*688 FILLER_101_492
*689 FILLER_101_496
*690 FILLER_101_499
*691 FILLER_101_563
*692 FILLER_101_567
*693 FILLER_101_570
*694 FILLER_101_634
*695 FILLER_101_638
*696 FILLER_101_641
*697 FILLER_101_66
*698 FILLER_101_70
*699 FILLER_101_705
*700 FILLER_101_709
*701 FILLER_101_712
*702 FILLER_101_73
*703 FILLER_101_776
*704 FILLER_101_780
*705 FILLER_101_783
*706 FILLER_101_847
*707 FILLER_101_851
*708 FILLER_101_854
*709 FILLER_101_918
*710 FILLER_101_922
*711 FILLER_101_925
*712 FILLER_101_989
*713 FILLER_101_993
*714 FILLER_101_996
*715 FILLER_102_101
*716 FILLER_102_1024
*717 FILLER_102_1028
*718 FILLER_102_1031
*719 FILLER_102_1039
*720 FILLER_102_1043
*721 FILLER_102_105
*722 FILLER_102_108
*723 FILLER_102_13
*724 FILLER_102_172
*725 FILLER_102_176
*726 FILLER_102_179
*727 FILLER_102_2
*728 FILLER_102_243
*729 FILLER_102_247
*730 FILLER_102_250
*731 FILLER_102_29
*732 FILLER_102_314
*733 FILLER_102_318
*734 FILLER_102_321
*735 FILLER_102_33
*736 FILLER_102_37
*737 FILLER_102_385
*738 FILLER_102_389
*739 FILLER_102_392
*740 FILLER_102_456
*741 FILLER_102_460
*742 FILLER_102_463
*743 FILLER_102_527
*744 FILLER_102_531
*745 FILLER_102_534
*746 FILLER_102_598
*747 FILLER_102_602
*748 FILLER_102_605
*749 FILLER_102_669
*750 FILLER_102_673
*751 FILLER_102_676
*752 FILLER_102_7
*753 FILLER_102_740
*754 FILLER_102_744
*755 FILLER_102_747
*756 FILLER_102_811
*757 FILLER_102_815
*758 FILLER_102_818
*759 FILLER_102_882
*760 FILLER_102_886
*761 FILLER_102_889
*762 FILLER_102_953
*763 FILLER_102_957
*764 FILLER_102_960
*765 FILLER_103_1028
*766 FILLER_103_1036
*767 FILLER_103_1044
*768 FILLER_103_137
*769 FILLER_103_141
*770 FILLER_103_144
*771 FILLER_103_2
*772 FILLER_103_208
*773 FILLER_103_212
*774 FILLER_103_215
*775 FILLER_103_279
*776 FILLER_103_283
*777 FILLER_103_286
*778 FILLER_103_350
*779 FILLER_103_354
*780 FILLER_103_357
*781 FILLER_103_421
*782 FILLER_103_425
*783 FILLER_103_428
*784 FILLER_103_492
*785 FILLER_103_496
*786 FILLER_103_499
*787 FILLER_103_563
*788 FILLER_103_567
*789 FILLER_103_570
*790 FILLER_103_634
*791 FILLER_103_638
*792 FILLER_103_641
*793 FILLER_103_66
*794 FILLER_103_70
*795 FILLER_103_705
*796 FILLER_103_709
*797 FILLER_103_712
*798 FILLER_103_73
*799 FILLER_103_776
*800 FILLER_103_780
*801 FILLER_103_783
*802 FILLER_103_847
*803 FILLER_103_851
*804 FILLER_103_854
*805 FILLER_103_918
*806 FILLER_103_922
*807 FILLER_103_925
*808 FILLER_103_989
*809 FILLER_103_993
*810 FILLER_103_996
*811 FILLER_104_101
*812 FILLER_104_1024
*813 FILLER_104_1028
*814 FILLER_104_1031
*815 FILLER_104_1039
*816 FILLER_104_1043
*817 FILLER_104_105
*818 FILLER_104_108
*819 FILLER_104_172
*820 FILLER_104_176
*821 FILLER_104_179
*822 FILLER_104_2
*823 FILLER_104_23
*824 FILLER_104_243
*825 FILLER_104_247
*826 FILLER_104_250
*827 FILLER_104_31
*828 FILLER_104_314
*829 FILLER_104_318
*830 FILLER_104_321
*831 FILLER_104_37
*832 FILLER_104_385
*833 FILLER_104_389
*834 FILLER_104_392
*835 FILLER_104_456
*836 FILLER_104_460
*837 FILLER_104_463
*838 FILLER_104_527
*839 FILLER_104_531
*840 FILLER_104_534
*841 FILLER_104_598
*842 FILLER_104_602
*843 FILLER_104_605
*844 FILLER_104_669
*845 FILLER_104_673
*846 FILLER_104_676
*847 FILLER_104_7
*848 FILLER_104_740
*849 FILLER_104_744
*850 FILLER_104_747
*851 FILLER_104_811
*852 FILLER_104_815
*853 FILLER_104_818
*854 FILLER_104_882
*855 FILLER_104_886
*856 FILLER_104_889
*857 FILLER_104_953
*858 FILLER_104_957
*859 FILLER_104_960
*860 FILLER_105_1028
*861 FILLER_105_1044
*862 FILLER_105_137
*863 FILLER_105_141
*864 FILLER_105_144
*865 FILLER_105_2
*866 FILLER_105_208
*867 FILLER_105_212
*868 FILLER_105_215
*869 FILLER_105_279
*870 FILLER_105_283
*871 FILLER_105_286
*872 FILLER_105_350
*873 FILLER_105_354
*874 FILLER_105_357
*875 FILLER_105_421
*876 FILLER_105_425
*877 FILLER_105_428
*878 FILLER_105_492
*879 FILLER_105_496
*880 FILLER_105_499
*881 FILLER_105_563
*882 FILLER_105_567
*883 FILLER_105_570
*884 FILLER_105_634
*885 FILLER_105_638
*886 FILLER_105_641
*887 FILLER_105_66
*888 FILLER_105_70
*889 FILLER_105_705
*890 FILLER_105_709
*891 FILLER_105_712
*892 FILLER_105_73
*893 FILLER_105_776
*894 FILLER_105_780
*895 FILLER_105_783
*896 FILLER_105_847
*897 FILLER_105_851
*898 FILLER_105_854
*899 FILLER_105_918
*900 FILLER_105_922
*901 FILLER_105_925
*902 FILLER_105_989
*903 FILLER_105_993
*904 FILLER_105_996
*905 FILLER_106_101
*906 FILLER_106_1024
*907 FILLER_106_1028
*908 FILLER_106_1031
*909 FILLER_106_1039
*910 FILLER_106_1043
*911 FILLER_106_105
*912 FILLER_106_108
*913 FILLER_106_172
*914 FILLER_106_176
*915 FILLER_106_179
*916 FILLER_106_2
*917 FILLER_106_243
*918 FILLER_106_247
*919 FILLER_106_250
*920 FILLER_106_314
*921 FILLER_106_318
*922 FILLER_106_321
*923 FILLER_106_34
*924 FILLER_106_37
*925 FILLER_106_385
*926 FILLER_106_389
*927 FILLER_106_392
*928 FILLER_106_456
*929 FILLER_106_460
*930 FILLER_106_463
*931 FILLER_106_527
*932 FILLER_106_531
*933 FILLER_106_534
*934 FILLER_106_598
*935 FILLER_106_602
*936 FILLER_106_605
*937 FILLER_106_669
*938 FILLER_106_673
*939 FILLER_106_676
*940 FILLER_106_740
*941 FILLER_106_744
*942 FILLER_106_747
*943 FILLER_106_811
*944 FILLER_106_815
*945 FILLER_106_818
*946 FILLER_106_882
*947 FILLER_106_886
*948 FILLER_106_889
*949 FILLER_106_953
*950 FILLER_106_957
*951 FILLER_106_960
*952 FILLER_107_1028
*953 FILLER_107_1044
*954 FILLER_107_137
*955 FILLER_107_141
*956 FILLER_107_144
*957 FILLER_107_2
*958 FILLER_107_208
*959 FILLER_107_212
*960 FILLER_107_215
*961 FILLER_107_279
*962 FILLER_107_283
*963 FILLER_107_286
*964 FILLER_107_350
*965 FILLER_107_354
*966 FILLER_107_357
*967 FILLER_107_421
*968 FILLER_107_425
*969 FILLER_107_428
*970 FILLER_107_492
*971 FILLER_107_496
*972 FILLER_107_499
*973 FILLER_107_563
*974 FILLER_107_567
*975 FILLER_107_570
*976 FILLER_107_634
*977 FILLER_107_638
*978 FILLER_107_641
*979 FILLER_107_66
*980 FILLER_107_70
*981 FILLER_107_705
*982 FILLER_107_709
*983 FILLER_107_712
*984 FILLER_107_73
*985 FILLER_107_776
*986 FILLER_107_780
*987 FILLER_107_783
*988 FILLER_107_847
*989 FILLER_107_851
*990 FILLER_107_854
*991 FILLER_107_918
*992 FILLER_107_922
*993 FILLER_107_925
*994 FILLER_107_989
*995 FILLER_107_993
*996 FILLER_107_996
*997 FILLER_108_101
*998 FILLER_108_1024
*999 FILLER_108_1028
*1000 FILLER_108_1031
*1001 FILLER_108_1039
*1002 FILLER_108_1044
*1003 FILLER_108_105
*1004 FILLER_108_108
*1005 FILLER_108_172
*1006 FILLER_108_176
*1007 FILLER_108_179
*1008 FILLER_108_2
*1009 FILLER_108_243
*1010 FILLER_108_247
*1011 FILLER_108_250
*1012 FILLER_108_314
*1013 FILLER_108_318
*1014 FILLER_108_321
*1015 FILLER_108_34
*1016 FILLER_108_37
*1017 FILLER_108_385
*1018 FILLER_108_389
*1019 FILLER_108_392
*1020 FILLER_108_456
*1021 FILLER_108_460
*1022 FILLER_108_463
*1023 FILLER_108_527
*1024 FILLER_108_531
*1025 FILLER_108_534
*1026 FILLER_108_598
*1027 FILLER_108_602
*1028 FILLER_108_605
*1029 FILLER_108_669
*1030 FILLER_108_673
*1031 FILLER_108_676
*1032 FILLER_108_740
*1033 FILLER_108_744
*1034 FILLER_108_747
*1035 FILLER_108_811
*1036 FILLER_108_815
*1037 FILLER_108_818
*1038 FILLER_108_882
*1039 FILLER_108_886
*1040 FILLER_108_889
*1041 FILLER_108_953
*1042 FILLER_108_957
*1043 FILLER_108_960
*1044 FILLER_109_1028
*1045 FILLER_109_1044
*1046 FILLER_109_137
*1047 FILLER_109_141
*1048 FILLER_109_144
*1049 FILLER_109_2
*1050 FILLER_109_208
*1051 FILLER_109_212
*1052 FILLER_109_215
*1053 FILLER_109_279
*1054 FILLER_109_283
*1055 FILLER_109_286
*1056 FILLER_109_350
*1057 FILLER_109_354
*1058 FILLER_109_357
*1059 FILLER_109_421
*1060 FILLER_109_425
*1061 FILLER_109_428
*1062 FILLER_109_492
*1063 FILLER_109_496
*1064 FILLER_109_499
*1065 FILLER_109_563
*1066 FILLER_109_567
*1067 FILLER_109_570
*1068 FILLER_109_634
*1069 FILLER_109_638
*1070 FILLER_109_641
*1071 FILLER_109_66
*1072 FILLER_109_70
*1073 FILLER_109_705
*1074 FILLER_109_709
*1075 FILLER_109_712
*1076 FILLER_109_73
*1077 FILLER_109_776
*1078 FILLER_109_780
*1079 FILLER_109_783
*1080 FILLER_109_847
*1081 FILLER_109_851
*1082 FILLER_109_854
*1083 FILLER_109_918
*1084 FILLER_109_922
*1085 FILLER_109_925
*1086 FILLER_109_989
*1087 FILLER_109_993
*1088 FILLER_109_996
*1089 FILLER_10_101
*1090 FILLER_10_1024
*1091 FILLER_10_1028
*1092 FILLER_10_1031
*1093 FILLER_10_1039
*1094 FILLER_10_1043
*1095 FILLER_10_105
*1096 FILLER_10_108
*1097 FILLER_10_172
*1098 FILLER_10_176
*1099 FILLER_10_179
*1100 FILLER_10_2
*1101 FILLER_10_23
*1102 FILLER_10_243
*1103 FILLER_10_247
*1104 FILLER_10_250
*1105 FILLER_10_31
*1106 FILLER_10_314
*1107 FILLER_10_318
*1108 FILLER_10_321
*1109 FILLER_10_37
*1110 FILLER_10_385
*1111 FILLER_10_389
*1112 FILLER_10_392
*1113 FILLER_10_456
*1114 FILLER_10_460
*1115 FILLER_10_463
*1116 FILLER_10_527
*1117 FILLER_10_531
*1118 FILLER_10_534
*1119 FILLER_10_598
*1120 FILLER_10_602
*1121 FILLER_10_605
*1122 FILLER_10_669
*1123 FILLER_10_673
*1124 FILLER_10_676
*1125 FILLER_10_7
*1126 FILLER_10_740
*1127 FILLER_10_744
*1128 FILLER_10_747
*1129 FILLER_10_811
*1130 FILLER_10_815
*1131 FILLER_10_818
*1132 FILLER_10_882
*1133 FILLER_10_886
*1134 FILLER_10_889
*1135 FILLER_10_953
*1136 FILLER_10_957
*1137 FILLER_10_960
*1138 FILLER_110_101
*1139 FILLER_110_1024
*1140 FILLER_110_1028
*1141 FILLER_110_1031
*1142 FILLER_110_1039
*1143 FILLER_110_1043
*1144 FILLER_110_105
*1145 FILLER_110_108
*1146 FILLER_110_172
*1147 FILLER_110_176
*1148 FILLER_110_179
*1149 FILLER_110_2
*1150 FILLER_110_21
*1151 FILLER_110_243
*1152 FILLER_110_247
*1153 FILLER_110_250
*1154 FILLER_110_29
*1155 FILLER_110_314
*1156 FILLER_110_318
*1157 FILLER_110_321
*1158 FILLER_110_33
*1159 FILLER_110_37
*1160 FILLER_110_385
*1161 FILLER_110_389
*1162 FILLER_110_392
*1163 FILLER_110_456
*1164 FILLER_110_460
*1165 FILLER_110_463
*1166 FILLER_110_5
*1167 FILLER_110_527
*1168 FILLER_110_531
*1169 FILLER_110_534
*1170 FILLER_110_598
*1171 FILLER_110_602
*1172 FILLER_110_605
*1173 FILLER_110_669
*1174 FILLER_110_673
*1175 FILLER_110_676
*1176 FILLER_110_740
*1177 FILLER_110_744
*1178 FILLER_110_747
*1179 FILLER_110_811
*1180 FILLER_110_815
*1181 FILLER_110_818
*1182 FILLER_110_882
*1183 FILLER_110_886
*1184 FILLER_110_889
*1185 FILLER_110_953
*1186 FILLER_110_957
*1187 FILLER_110_960
*1188 FILLER_111_1028
*1189 FILLER_111_1044
*1190 FILLER_111_137
*1191 FILLER_111_141
*1192 FILLER_111_144
*1193 FILLER_111_2
*1194 FILLER_111_208
*1195 FILLER_111_212
*1196 FILLER_111_215
*1197 FILLER_111_279
*1198 FILLER_111_283
*1199 FILLER_111_286
*1200 FILLER_111_350
*1201 FILLER_111_354
*1202 FILLER_111_357
*1203 FILLER_111_41
*1204 FILLER_111_421
*1205 FILLER_111_425
*1206 FILLER_111_428
*1207 FILLER_111_492
*1208 FILLER_111_496
*1209 FILLER_111_499
*1210 FILLER_111_563
*1211 FILLER_111_567
*1212 FILLER_111_57
*1213 FILLER_111_570
*1214 FILLER_111_634
*1215 FILLER_111_638
*1216 FILLER_111_641
*1217 FILLER_111_65
*1218 FILLER_111_69
*1219 FILLER_111_705
*1220 FILLER_111_709
*1221 FILLER_111_712
*1222 FILLER_111_73
*1223 FILLER_111_776
*1224 FILLER_111_780
*1225 FILLER_111_783
*1226 FILLER_111_847
*1227 FILLER_111_851
*1228 FILLER_111_854
*1229 FILLER_111_9
*1230 FILLER_111_918
*1231 FILLER_111_922
*1232 FILLER_111_925
*1233 FILLER_111_989
*1234 FILLER_111_993
*1235 FILLER_111_996
*1236 FILLER_112_101
*1237 FILLER_112_1024
*1238 FILLER_112_1028
*1239 FILLER_112_1031
*1240 FILLER_112_1039
*1241 FILLER_112_1044
*1242 FILLER_112_105
*1243 FILLER_112_108
*1244 FILLER_112_172
*1245 FILLER_112_176
*1246 FILLER_112_179
*1247 FILLER_112_2
*1248 FILLER_112_23
*1249 FILLER_112_243
*1250 FILLER_112_247
*1251 FILLER_112_250
*1252 FILLER_112_31
*1253 FILLER_112_314
*1254 FILLER_112_318
*1255 FILLER_112_321
*1256 FILLER_112_37
*1257 FILLER_112_385
*1258 FILLER_112_389
*1259 FILLER_112_392
*1260 FILLER_112_456
*1261 FILLER_112_460
*1262 FILLER_112_463
*1263 FILLER_112_527
*1264 FILLER_112_531
*1265 FILLER_112_534
*1266 FILLER_112_598
*1267 FILLER_112_602
*1268 FILLER_112_605
*1269 FILLER_112_669
*1270 FILLER_112_673
*1271 FILLER_112_676
*1272 FILLER_112_7
*1273 FILLER_112_740
*1274 FILLER_112_744
*1275 FILLER_112_747
*1276 FILLER_112_811
*1277 FILLER_112_815
*1278 FILLER_112_818
*1279 FILLER_112_882
*1280 FILLER_112_886
*1281 FILLER_112_889
*1282 FILLER_112_953
*1283 FILLER_112_957
*1284 FILLER_112_960
*1285 FILLER_113_1028
*1286 FILLER_113_1044
*1287 FILLER_113_137
*1288 FILLER_113_141
*1289 FILLER_113_144
*1290 FILLER_113_2
*1291 FILLER_113_208
*1292 FILLER_113_212
*1293 FILLER_113_215
*1294 FILLER_113_279
*1295 FILLER_113_283
*1296 FILLER_113_286
*1297 FILLER_113_350
*1298 FILLER_113_354
*1299 FILLER_113_357
*1300 FILLER_113_421
*1301 FILLER_113_425
*1302 FILLER_113_428
*1303 FILLER_113_492
*1304 FILLER_113_496
*1305 FILLER_113_499
*1306 FILLER_113_563
*1307 FILLER_113_567
*1308 FILLER_113_570
*1309 FILLER_113_634
*1310 FILLER_113_638
*1311 FILLER_113_641
*1312 FILLER_113_66
*1313 FILLER_113_70
*1314 FILLER_113_705
*1315 FILLER_113_709
*1316 FILLER_113_712
*1317 FILLER_113_73
*1318 FILLER_113_776
*1319 FILLER_113_780
*1320 FILLER_113_783
*1321 FILLER_113_847
*1322 FILLER_113_851
*1323 FILLER_113_854
*1324 FILLER_113_918
*1325 FILLER_113_922
*1326 FILLER_113_925
*1327 FILLER_113_989
*1328 FILLER_113_993
*1329 FILLER_113_996
*1330 FILLER_114_101
*1331 FILLER_114_1024
*1332 FILLER_114_1028
*1333 FILLER_114_1031
*1334 FILLER_114_1039
*1335 FILLER_114_1043
*1336 FILLER_114_105
*1337 FILLER_114_108
*1338 FILLER_114_172
*1339 FILLER_114_176
*1340 FILLER_114_179
*1341 FILLER_114_2
*1342 FILLER_114_23
*1343 FILLER_114_243
*1344 FILLER_114_247
*1345 FILLER_114_250
*1346 FILLER_114_31
*1347 FILLER_114_314
*1348 FILLER_114_318
*1349 FILLER_114_321
*1350 FILLER_114_37
*1351 FILLER_114_385
*1352 FILLER_114_389
*1353 FILLER_114_392
*1354 FILLER_114_456
*1355 FILLER_114_460
*1356 FILLER_114_463
*1357 FILLER_114_527
*1358 FILLER_114_531
*1359 FILLER_114_534
*1360 FILLER_114_598
*1361 FILLER_114_602
*1362 FILLER_114_605
*1363 FILLER_114_669
*1364 FILLER_114_673
*1365 FILLER_114_676
*1366 FILLER_114_7
*1367 FILLER_114_740
*1368 FILLER_114_744
*1369 FILLER_114_747
*1370 FILLER_114_811
*1371 FILLER_114_815
*1372 FILLER_114_818
*1373 FILLER_114_882
*1374 FILLER_114_886
*1375 FILLER_114_889
*1376 FILLER_114_953
*1377 FILLER_114_957
*1378 FILLER_114_960
*1379 FILLER_115_1028
*1380 FILLER_115_1044
*1381 FILLER_115_137
*1382 FILLER_115_141
*1383 FILLER_115_144
*1384 FILLER_115_2
*1385 FILLER_115_208
*1386 FILLER_115_212
*1387 FILLER_115_215
*1388 FILLER_115_279
*1389 FILLER_115_283
*1390 FILLER_115_286
*1391 FILLER_115_350
*1392 FILLER_115_354
*1393 FILLER_115_357
*1394 FILLER_115_421
*1395 FILLER_115_425
*1396 FILLER_115_428
*1397 FILLER_115_492
*1398 FILLER_115_496
*1399 FILLER_115_499
*1400 FILLER_115_563
*1401 FILLER_115_567
*1402 FILLER_115_570
*1403 FILLER_115_634
*1404 FILLER_115_638
*1405 FILLER_115_641
*1406 FILLER_115_66
*1407 FILLER_115_70
*1408 FILLER_115_705
*1409 FILLER_115_709
*1410 FILLER_115_712
*1411 FILLER_115_73
*1412 FILLER_115_776
*1413 FILLER_115_780
*1414 FILLER_115_783
*1415 FILLER_115_847
*1416 FILLER_115_851
*1417 FILLER_115_854
*1418 FILLER_115_918
*1419 FILLER_115_922
*1420 FILLER_115_925
*1421 FILLER_115_989
*1422 FILLER_115_993
*1423 FILLER_115_996
*1424 FILLER_116_101
*1425 FILLER_116_1024
*1426 FILLER_116_1028
*1427 FILLER_116_1031
*1428 FILLER_116_1039
*1429 FILLER_116_1043
*1430 FILLER_116_105
*1431 FILLER_116_108
*1432 FILLER_116_172
*1433 FILLER_116_176
*1434 FILLER_116_179
*1435 FILLER_116_2
*1436 FILLER_116_243
*1437 FILLER_116_247
*1438 FILLER_116_250
*1439 FILLER_116_314
*1440 FILLER_116_318
*1441 FILLER_116_321
*1442 FILLER_116_34
*1443 FILLER_116_37
*1444 FILLER_116_385
*1445 FILLER_116_389
*1446 FILLER_116_392
*1447 FILLER_116_456
*1448 FILLER_116_460
*1449 FILLER_116_463
*1450 FILLER_116_527
*1451 FILLER_116_531
*1452 FILLER_116_534
*1453 FILLER_116_598
*1454 FILLER_116_602
*1455 FILLER_116_605
*1456 FILLER_116_669
*1457 FILLER_116_673
*1458 FILLER_116_676
*1459 FILLER_116_740
*1460 FILLER_116_744
*1461 FILLER_116_747
*1462 FILLER_116_811
*1463 FILLER_116_815
*1464 FILLER_116_818
*1465 FILLER_116_882
*1466 FILLER_116_886
*1467 FILLER_116_889
*1468 FILLER_116_953
*1469 FILLER_116_957
*1470 FILLER_116_960
*1471 FILLER_117_1028
*1472 FILLER_117_1044
*1473 FILLER_117_137
*1474 FILLER_117_141
*1475 FILLER_117_144
*1476 FILLER_117_2
*1477 FILLER_117_208
*1478 FILLER_117_212
*1479 FILLER_117_215
*1480 FILLER_117_279
*1481 FILLER_117_283
*1482 FILLER_117_286
*1483 FILLER_117_350
*1484 FILLER_117_354
*1485 FILLER_117_357
*1486 FILLER_117_421
*1487 FILLER_117_425
*1488 FILLER_117_428
*1489 FILLER_117_492
*1490 FILLER_117_496
*1491 FILLER_117_499
*1492 FILLER_117_563
*1493 FILLER_117_567
*1494 FILLER_117_570
*1495 FILLER_117_634
*1496 FILLER_117_638
*1497 FILLER_117_641
*1498 FILLER_117_7
*1499 FILLER_117_705
*1500 FILLER_117_709
*1501 FILLER_117_712
*1502 FILLER_117_73
*1503 FILLER_117_776
*1504 FILLER_117_780
*1505 FILLER_117_783
*1506 FILLER_117_847
*1507 FILLER_117_851
*1508 FILLER_117_854
*1509 FILLER_117_918
*1510 FILLER_117_922
*1511 FILLER_117_925
*1512 FILLER_117_989
*1513 FILLER_117_993
*1514 FILLER_117_996
*1515 FILLER_118_101
*1516 FILLER_118_1024
*1517 FILLER_118_1028
*1518 FILLER_118_1031
*1519 FILLER_118_1039
*1520 FILLER_118_1044
*1521 FILLER_118_105
*1522 FILLER_118_108
*1523 FILLER_118_172
*1524 FILLER_118_176
*1525 FILLER_118_179
*1526 FILLER_118_2
*1527 FILLER_118_243
*1528 FILLER_118_247
*1529 FILLER_118_250
*1530 FILLER_118_314
*1531 FILLER_118_318
*1532 FILLER_118_321
*1533 FILLER_118_34
*1534 FILLER_118_37
*1535 FILLER_118_385
*1536 FILLER_118_389
*1537 FILLER_118_392
*1538 FILLER_118_456
*1539 FILLER_118_460
*1540 FILLER_118_463
*1541 FILLER_118_527
*1542 FILLER_118_531
*1543 FILLER_118_534
*1544 FILLER_118_598
*1545 FILLER_118_602
*1546 FILLER_118_605
*1547 FILLER_118_669
*1548 FILLER_118_673
*1549 FILLER_118_676
*1550 FILLER_118_740
*1551 FILLER_118_744
*1552 FILLER_118_747
*1553 FILLER_118_811
*1554 FILLER_118_815
*1555 FILLER_118_818
*1556 FILLER_118_882
*1557 FILLER_118_886
*1558 FILLER_118_889
*1559 FILLER_118_953
*1560 FILLER_118_957
*1561 FILLER_118_960
*1562 FILLER_119_1028
*1563 FILLER_119_1044
*1564 FILLER_119_137
*1565 FILLER_119_141
*1566 FILLER_119_144
*1567 FILLER_119_2
*1568 FILLER_119_208
*1569 FILLER_119_212
*1570 FILLER_119_215
*1571 FILLER_119_279
*1572 FILLER_119_283
*1573 FILLER_119_286
*1574 FILLER_119_350
*1575 FILLER_119_354
*1576 FILLER_119_357
*1577 FILLER_119_421
*1578 FILLER_119_425
*1579 FILLER_119_428
*1580 FILLER_119_492
*1581 FILLER_119_496
*1582 FILLER_119_499
*1583 FILLER_119_563
*1584 FILLER_119_567
*1585 FILLER_119_570
*1586 FILLER_119_634
*1587 FILLER_119_638
*1588 FILLER_119_641
*1589 FILLER_119_7
*1590 FILLER_119_705